
 This article discusses the development of an optimal variable-pitch controller for floating, axial-flow marine turbines. Recently, OpenFAST, an open-source wind turbine modeling tool, has been extended to model marine turbines. A controller is necessary to simulate marine turbines for different load cases using OpenFAST, which greatly impacts the performance of the energy system. Previous studies have designed controllers using a linearized model of the marine turbine, which can be time-consuming and require the expertise of a control engineer. In this study, we use an automated approach that uses generic models of the marine turbine to identify the controller gains, which can expedite the process of designing a controller. Using an optimizer to identify the control system parameters can additionally improve the controller’s performance. The optimal controller tuned using such an approach results in a 20% reduction in the tower-base damage equivalent loading and better tracking of the rated generator speed and power.